%nprocshared=2
%mem=1GB
#b3lyp/6-31+g* scf=tight nosymm punch=mo iop(3/33=1)

9_11_07
 
0 1
C	0.672749	0.000000	0.000000
C	-0.672749	0.000000	0.000000
H	1.242623	0.934806	0.000000
H	1.242623	-0.934806	0.000000
H	-1.242623	0.934806	0.000000
H	-1.242623	-0.934806	0.000000
C	0.672749	0.000000	5.000000
C	-0.672749	0.000000	5.000000
H	1.242623	0.934806	5.000000
H	1.242623	-0.934806	5.000000
H	-1.242623	0.934806	5.000000
H	-1.242623	-0.934806	5.000000



